147
symmetry c1
C        2.728000000      5.285791416      0.235095956
H        2.592000000      6.291768515      0.682223540
C        3.632000000      3.125804530      0.781001307
H        2.647000000      2.708798472      0.483118868
O        3.375000000      4.485875708      1.216710372
C        3.633000000      5.397176663     -1.010349477
H        4.558000000      5.974079661     -0.796929864
O        2.949000000      6.090488814     -2.053678410
H        2.720000000      6.958465417     -1.709292556
C        4.009000000      4.009058715     -1.535229045
H        3.103000000      3.529185942     -1.962176492
O        4.946000000      4.129428307     -2.597261607
H        4.544000000      4.695441512     -3.261627509
C        4.584000000      3.120931067     -0.442332764
H        5.579000000      3.508977056     -0.136619974
O        4.672000000      1.786054050     -0.968762577
C        4.162000000      2.360581682      1.981342505
H        3.343000000      2.216627811      2.717846601
H        4.627000000      1.411561666      1.638358527
O        5.173000000      3.094390246      2.637142773
H        5.466000000      2.562408077      3.381395399
C        5.940000000      1.208729025     -1.028960711
H        6.732000000      1.982004053     -1.096122682
C        5.270000000     -0.622744588      0.376390990
H        4.270000000     -0.154217498      0.496254938
O        6.207000000      0.453677479      0.132373506
C        6.017000000      0.293392028     -2.258052727
H        7.022000000     -0.163634721     -2.382890824
O        5.761000000      1.044799361     -3.437462334
H        6.440000000      1.722969376     -3.490097209
C        4.968000000     -0.815903487     -2.101900687
H        3.946000000     -0.382195443     -2.062539125
O        4.995000000     -1.699820464     -3.220151455
H        4.819000000     -1.168108359     -4.001416607
C        5.240000000     -1.588860768     -0.813694942
H        6.190000000     -2.156531539     -0.917111074
O        4.194000000     -2.563971452     -0.614888115
C        5.675000000     -1.289614462      1.681492355
H        5.610000000     -0.551795702      2.509205154
H        5.040000000     -2.184937035      1.851267174
O        7.016000000     -1.742973917      1.644543683
H        7.197000000     -2.149243942      2.495896528
C        4.633000000     -3.807459884     -0.135919934
H        5.729000000     -3.779316298      0.029467304
C        2.599000000     -4.171849933      1.097133144
H        2.210000000     -3.153028183      0.882985434
O        4.041000000     -4.134345238      1.112475823
C        4.300000000     -4.900599555     -1.153677597
H        4.684000000     -5.901347713     -0.861958338
O        4.890000000     -4.586864300     -2.404733227
H        5.840000000     -4.552612956     -2.265030523
C        2.792000000     -4.967159340     -1.318622421
H        2.404000000     -4.053926539     -1.818308173
O        2.451000000     -6.061583684     -2.149569084
H        2.901000000     -5.926615955     -2.988270289
C        2.095000000     -5.143928196      0.026752907
H        2.204000000     -6.197573484      0.363437636
O        0.705000000     -4.921331501     -0.173695869
C        2.149000000     -4.604136890      2.496679494
H        1.042000000     -4.700128528      2.515589955
H        2.676000000     -5.539528114      2.781086348
O        2.491000000     -3.630184969      3.472078210
H        2.182000000     -3.962158979      4.319295570
C       -0.116000000     -6.000957164      0.171878186
H        0.476000000     -6.928489565      0.311411858
C       -1.619000000     -4.571458596      1.387708291
H       -0.957000000     -3.714033376      1.141371140
O       -0.794000000     -5.762434471      1.395020420
C       -1.145000000     -6.216826570     -0.942196048
H       -1.771000000     -7.119512204     -0.774366827
O       -0.464000000     -6.417302643     -2.157186314
H        0.087000000     -7.196291872     -2.043728037
C       -2.047000000     -4.986521199     -1.046951446
H       -1.460000000     -4.097721223     -1.362683300
O       -3.047000000     -5.189243202     -2.036542164
H       -2.590000000     -5.360743311     -2.864685698
C       -2.704000000     -4.706359224      0.306437362
H       -3.413000000     -5.526500955      0.548909094
O       -3.481000000     -3.501344831      0.216185979
C       -2.159000000     -4.402286239      2.800319601
H       -1.311000000     -4.271391316      3.506638593
H       -2.895000000     -3.570256001      2.817132778
O       -2.853000000     -5.567561685      3.208416570
H       -3.170000000     -5.405937936      4.101177884
C       -4.795000000     -3.593160211      0.692667810
H       -5.018000000     -4.629764205      1.017286294
C       -4.707000000     -1.367651506      1.591335715
H       -3.633000000     -1.264020456      1.327128210
O       -4.999000000     -2.757165318      1.826776508
C       -5.774000000     -3.183190827     -0.407060385
H       -6.832000000     -3.307016113     -0.092641399
O       -5.588000000     -4.007956343     -1.542547877
H       -5.755000000     -4.911678767     -1.261317046
C       -5.524000000     -1.723293482     -0.782940340
H       -4.537000000     -1.618622946     -1.282373097
O       -6.504000000     -1.282373166     -1.717625996
H       -6.450000000     -1.869311398     -2.476949717
C       -5.567000000     -0.822953568      0.445855835
H       -6.623000000     -0.680771425      0.762521650
O       -5.071000000      0.470030274      0.074084690
C       -4.978000000     -0.635137497      2.880633673
H       -5.443000000      0.348100278      2.655181952
H       -5.587000000     -1.278869721      3.550267770
O       -3.768000000     -0.365796070      3.565679071
H       -4.002000000      0.098948043      4.374202360
C       -6.011000000      1.502785641      0.066251919
H       -7.037000000      1.098378771      0.184298874
C       -4.500000000      3.039754004      1.147775498
H       -3.739000000      2.242467280      1.286277769
O       -5.802000000      2.407758599      1.141309566
C       -5.912000000      2.255304399     -1.260764478
H       -6.676000000      3.058327507     -1.335141139
O       -6.142000000      1.370007729     -2.349636742
H       -7.025000000      1.008671386     -2.234740932
C       -4.518000000      2.868808675     -1.381688021
H       -3.742000000      2.075884930     -1.433936804
O       -4.425000000      3.614675952     -2.594613412
H       -4.608000000      3.003529696     -3.313206659
C       -4.238000000      3.773778938     -0.184806731
H       -4.842000000      4.702344536     -0.275310488
O       -2.857000000      4.172766549     -0.230946582
C       -4.469000000      3.974299998      2.336038426
H       -3.930000000      4.905726290      2.059954992
H       -5.506000000      4.150070762      2.694174766
O       -3.755000000      3.395619882      3.419436009
H       -3.771000000      4.033780609      4.137561963
C       -2.594000000      5.519667244      0.010464932
H       -3.543000000      6.072315156      0.165594831
C       -0.522000000      5.060986868      1.166043277
H       -0.717000000      3.975116757      1.037201895
O       -1.814000000      5.707067853      1.188590142
C       -1.863000000      6.098694754     -1.191948950
H       -1.758000000      7.203947110     -1.143140864
O       -2.601000000      5.810870284     -2.369854750
H       -3.464000000      6.220492897     -2.265555588
C       -0.480000000      5.462835726     -1.316914132
H       -0.597000000      4.392630810     -1.590874781
O        0.222000000      6.082615893     -2.384698073
H       -0.323000000      5.986100297     -3.170754521
C        0.323000000      5.570495285     -0.010736725
H        0.681000000      6.614181494      0.116872436
O        1.496000000      4.742284304     -0.129894482
C        0.110000000      5.299063554      2.513200837
H        1.196000000      5.073345085      2.456137954
H       -0.129000000      6.327895660      2.856358961
O       -0.440000000      4.412194803      3.471295727
H       -0.008000000      4.601917773      4.308600447